electric-grid/reference/ieee-14bus/IEEE 14 bus.epc
title
 08/19/93 UW ARCHIVE           100.0  1962 W IEEE 14 Bus Test Case
!
comments
!
solution parameters
tap    1    tcul  enabled/disabled
phas   1    ps    enabled/disabled
area   1    area  enabled/disabled
svd    1    svd   enabled/disabled
dctap  1    dc    enabled/disabled
gcd    1    gcd   enabled/disabled
jump  0.000290    jumper threshold
toler   0.1000    newton tolerance
sbase 100.0000    system mva base
!
bus data  [14]               ty  vsched   volt     angle    ar zone  vmax   vmin   date_in date_out pid L own st  latitude  longitude island    sdmon   vmax1      vmin1      dvmax
      1 "Bus 1       " 138.0000 :  0 1.06000 1.060000   0.00000   1    1 1.1000 0.9000   400101   391231   0 0   1 0    0.00000    0.00000 0    0.00000    0.00000    0.00000
      2 "Bus 2       " 138.0000 :  2 1.04500 1.045000  -4.98255   1    1 1.1000 0.9000   400101   391231   0 0   1 0    0.00000    0.00000 0    0.00000    0.00000    0.00000
      3 "Bus 3       " 138.0000 :  2 1.01000 1.010000 -12.72503   1    1 1.1000 0.9000   400101   391231   0 0   1 0    0.00000    0.00000 0    0.00000    0.00000    0.00000
      4 "Bus 4       " 138.0000 :  1 1.017672 1.017672 -10.31283   1    1 1.1000 0.9000   400101   391231   0 0   1 0    0.00000    0.00000 0    0.00000    0.00000    0.00000
      5 "Bus 5       " 138.0000 :  1 1.019515 1.019515  -8.77380   1    1 1.1000 0.9000   400101   391231   0 0   1 0    0.00000    0.00000 0    0.00000    0.00000    0.00000
      6 "Bus 6       " 138.0000 :  2 1.07000 1.070000 -14.22087   1    1 1.1000 0.9000   400101   391231   0 0   1 0    0.00000    0.00000 0    0.00000    0.00000    0.00000
      7 "Bus 7       " 138.0000 :  1 1.061520 1.061520 -13.35956   1    1 1.1000 0.9000   400101   391231   0 0   1 0    0.00000    0.00000 0    0.00000    0.00000    0.00000
      8 "Bus 8       " 138.0000 :  2 1.09000 1.090000 -13.35957   1    1 1.1000 0.9000   400101   391231   0 0   1 0    0.00000    0.00000 0    0.00000    0.00000    0.00000
      9 "Bus 9       " 138.0000 :  1 1.055933 1.055933 -14.93846   1    1 1.1000 0.9000   400101   391231   0 0   1 0    0.00000    0.00000 0    0.00000    0.00000    0.00000
     10 "Bus 10      " 138.0000 :  1 1.050986 1.050986 -15.09722   1    1 1.1000 0.9000   400101   391231   0 0   1 0    0.00000    0.00000 0    0.00000    0.00000    0.00000
     11 "Bus 11      " 138.0000 :  1 1.056907 1.056907 -14.79055   1    1 1.1000 0.9000   400101   391231   0 0   1 0    0.00000    0.00000 0    0.00000    0.00000    0.00000
     12 "Bus 12      " 138.0000 :  1 1.055189 1.055189 -15.07551   1    1 1.1000 0.9000   400101   391231   0 0   1 0    0.00000    0.00000 0    0.00000    0.00000    0.00000
     13 "Bus 13      " 138.0000 :  1 1.050383 1.050383 -15.15620   1    1 1.1000 0.9000   400101   391231   0 0   1 0    0.00000    0.00000 0    0.00000    0.00000    0.00000
     14 "Bus 14      " 138.0000 :  1 1.035531 1.035531 -16.03356   1    1 1.1000 0.9000   400101   391231   0 0   1 0    0.00000    0.00000 0    0.00000    0.00000    0.00000
branch data  [   17]                                          ck  se  ------------long_id_------------    st resist   react   charge   rate1  rate2  rate3  rate4 aloss  lngth 
      1 "Bus 1       " 138.00       2 "Bus 2       " 138.00  "1 "  1 "                                " :  1  0.019380  0.059170  0.052800    0.0    0.0    0.0    0.0 0.000    1.0 /
   1    1  0.000000  0.000000  1.000000   400101   391231   0 1  0    0.0    0.0    0.0    0.0   1 1.000   0 0.000   0 0.000   0 0.000   0 0.000   0 0.000   0 0.000   0 0.000  0 0 
      1 "Bus 1       " 138.00       5 "Bus 5       " 138.00  "1 "  1 "                                " :  1  0.054030  0.223040  0.049200    0.0    0.0    0.0    0.0 0.000    1.0 /
   1    1  0.000000  0.000000  1.000000   400101   391231   0 1  0    0.0    0.0    0.0    0.0   1 1.000   0 0.000   0 0.000   0 0.000   0 0.000   0 0.000   0 0.000   0 0.000  0 0 
      2 "Bus 2       " 138.00       3 "Bus 3       " 138.00  "1 "  1 "                                " :  1  0.046990  0.197970  0.043800    0.0    0.0    0.0    0.0 0.000    1.0 /
   1    1  0.000000  0.000000  1.000000   400101   391231   0 1  0    0.0    0.0    0.0    0.0   1 1.000   0 0.000   0 0.000   0 0.000   0 0.000   0 0.000   0 0.000   0 0.000  0 0 
      2 "Bus 2       " 138.00       4 "Bus 4       " 138.00  "1 "  1 "                                " :  1  0.058110  0.176320  0.034000    0.0    0.0    0.0    0.0 0.000    1.0 /
   1    1  0.000000  0.000000  1.000000   400101   391231   0 1  0    0.0    0.0    0.0    0.0   1 1.000   0 0.000   0 0.000   0 0.000   0 0.000   0 0.000   0 0.000   0 0.000  0 0 
      2 "Bus 2       " 138.00       5 "Bus 5       " 138.00  "1 "  1 "                                " :  1  0.056950  0.173880  0.034600    0.0    0.0    0.0    0.0 0.000    1.0 /
   1    1  0.000000  0.000000  1.000000   400101   391231   0 1  0    0.0    0.0    0.0    0.0   1 1.000   0 0.000   0 0.000   0 0.000   0 0.000   0 0.000   0 0.000   0 0.000  0 0 
      3 "Bus 3       " 138.00       4 "Bus 4       " 138.00  "1 "  1 "                                " :  1  0.067010  0.171030  0.012800    0.0    0.0    0.0    0.0 0.000    1.0 /
   1    1  0.000000  0.000000  1.000000   400101   391231   0 1  0    0.0    0.0    0.0    0.0   1 1.000   0 0.000   0 0.000   0 0.000   0 0.000   0 0.000   0 0.000   0 0.000  0 0 
      4 "Bus 4       " 138.00       5 "Bus 5       " 138.00  "1 "  1 "                                " :  1  0.013350  0.042110  0.000000    0.0    0.0    0.0    0.0 0.000    1.0 /
   1    1  0.000000  0.000000  1.000000   400101   391231   0 1  0    0.0    0.0    0.0    0.0   1 1.000   0 0.000   0 0.000   0 0.000   0 0.000   0 0.000   0 0.000   0 0.000  0 0 
      6 "Bus 6       " 138.00      11 "Bus 11      " 138.00  "1 "  1 "                                " :  1  0.094980  0.198900  0.000000    0.0    0.0    0.0    0.0 0.000    1.0 /
   1    1  0.000000  0.000000  1.000000   400101   391231   0 1  0    0.0    0.0    0.0    0.0   1 1.000   0 0.000   0 0.000   0 0.000   0 0.000   0 0.000   0 0.000   0 0.000  0 0 
      6 "Bus 6       " 138.00      12 "Bus 12      " 138.00  "1 "  1 "                                " :  1  0.122910  0.255810  0.000000    0.0    0.0    0.0    0.0 0.000    1.0 /
   1    1  0.000000  0.000000  1.000000   400101   391231   0 1  0    0.0    0.0    0.0    0.0   1 1.000   0 0.000   0 0.000   0 0.000   0 0.000   0 0.000   0 0.000   0 0.000  0 0 
      6 "Bus 6       " 138.00      13 "Bus 13      " 138.00  "1 "  1 "                                " :  1  0.066150  0.130270  0.000000    0.0    0.0    0.0    0.0 0.000    1.0 /
   1    1  0.000000  0.000000  1.000000   400101   391231   0 1  0    0.0    0.0    0.0    0.0   1 1.000   0 0.000   0 0.000   0 0.000   0 0.000   0 0.000   0 0.000   0 0.000  0 0 
      7 "Bus 7       " 138.00       8 "Bus 8       " 138.00  "1 "  1 "                                " :  1  0.000000  0.176150  0.000000    0.0    0.0    0.0    0.0 0.000    1.0 /
   1    1  0.000000  0.000000  1.000000   400101   391231   0 1  0    0.0    0.0    0.0    0.0   1 1.000   0 0.000   0 0.000   0 0.000   0 0.000   0 0.000   0 0.000   0 0.000  0 0 
      7 "Bus 7       " 138.00       9 "Bus 9       " 138.00  "1 "  1 "                                " :  1  0.000000  0.110010  0.000000    0.0    0.0    0.0    0.0 0.000    1.0 /
   1    1  0.000000  0.000000  1.000000   400101   391231   0 1  0    0.0    0.0    0.0    0.0   1 1.000   0 0.000   0 0.000   0 0.000   0 0.000   0 0.000   0 0.000   0 0.000  0 0 
      9 "Bus 9       " 138.00      10 "Bus 10      " 138.00  "1 "  1 "                                " :  1  0.031810  0.084500  0.000000    0.0    0.0    0.0    0.0 0.000    1.0 /
   1    1  0.000000  0.000000  1.000000   400101   391231   0 1  0    0.0    0.0    0.0    0.0   1 1.000   0 0.000   0 0.000   0 0.000   0 0.000   0 0.000   0 0.000   0 0.000  0 0 
      9 "Bus 9       " 138.00      14 "Bus 14      " 138.00  "1 "  1 "                                " :  1  0.127110  0.270380  0.000000    0.0    0.0    0.0    0.0 0.000    1.0 /
   1    1  0.000000  0.000000  1.000000   400101   391231   0 1  0    0.0    0.0    0.0    0.0   1 1.000   0 0.000   0 0.000   0 0.000   0 0.000   0 0.000   0 0.000   0 0.000  0 0 
     10 "Bus 10      " 138.00      11 "Bus 11      " 138.00  "1 "  1 "                                " :  1  0.082050  0.192070  0.000000    0.0    0.0    0.0    0.0 0.000    1.0 /
   1    1  0.000000  0.000000  1.000000   400101   391231   0 1  0    0.0    0.0    0.0    0.0   1 1.000   0 0.000   0 0.000   0 0.000   0 0.000   0 0.000   0 0.000   0 0.000  0 0 
     12 "Bus 12      " 138.00      13 "Bus 13      " 138.00  "1 "  1 "                                " :  1  0.220920  0.199880  0.000000    0.0    0.0    0.0    0.0 0.000    1.0 /
   1    1  0.000000  0.000000  1.000000   400101   391231   0 1  0    0.0    0.0    0.0    0.0   1 1.000   0 0.000   0 0.000   0 0.000   0 0.000   0 0.000   0 0.000   0 0.000  0 0 
     13 "Bus 13      " 138.00      14 "Bus 14      " 138.00  "1 "  1 "                                " :  1  0.170930  0.348020  0.000000    0.0    0.0    0.0    0.0 0.000    1.0 /
   1    1  0.000000  0.000000  1.000000   400101   391231   0 1  0    0.0    0.0    0.0    0.0   1 1.000   0 0.000   0 0.000   0 0.000   0 0.000   0 0.000   0 0.000   0 0.000  0 0 
transformer data  [   3]                                     ck   ------------long_id_------------     st ty --no---    reg_name          zt         int                              tert                   ar zone  tbase   ps_r    ps_x    pt_r    pt_x    ts_r    ts_x
      4 "Bus 4       " 138.00       7 "Bus 7       " 138.00  "1 " "                                " :  1  1       0 "            "   0.00  0       0 "            "   0.00       0 "            "   0.00    1    1 100.000000 0.000000E+000 2.091200E-001 0.000000E+000 0.000000E+000 0.000000E+000 0.000000E+000 /
 138.000000 138.000000  0.000000  0.000000 0.000000E+000 0.000000E+000    0.0    0.0    0.0    0.0 0.000  1.500000  0.510000  1.500000  0.510000 -0.006250  0.978000  1.000000  1.000000  1.000000   400101   391231   0 1     0.0    0.0    0.0    0.0 /
   1 1.000   0 0.000   0 0.000   0 0.000   0 0.000   0 0.000   0 0.000   0 0.000  0 /
   0.000000   0.000000  0.000000  0.000000     0.0    0.0    0.0     0.0    0.0    0.0 0.000 0.000  0  0  0 0.0000 0.0000 0 
      4 "Bus 4       " 138.00       9 "Bus 9       " 138.00  "1 " "                                " :  1  1       0 "            "   0.00  0       0 "            "   0.00       0 "            "   0.00    1    1 100.000000 0.000000E+000 5.561800E-001 0.000000E+000 0.000000E+000 0.000000E+000 0.000000E+000 /
 138.000000 138.000000  0.000000  0.000000 0.000000E+000 0.000000E+000    0.0    0.0    0.0    0.0 0.000  1.500000  0.510000  1.500000  0.510000 -0.006250  0.969000  1.000000  1.000000  1.000000   400101   391231   0 1     0.0    0.0    0.0    0.0 /
   1 1.000   0 0.000   0 0.000   0 0.000   0 0.000   0 0.000   0 0.000   0 0.000  0 /
   0.000000   0.000000  0.000000  0.000000     0.0    0.0    0.0     0.0    0.0    0.0 0.000 0.000  0  0  0 0.0000 0.0000 0 
      5 "Bus 5       " 138.00       6 "Bus 6       " 138.00  "1 " "                                " :  1  1       0 "            "   0.00  0       0 "            "   0.00       0 "            "   0.00    1    1 100.000000 0.000000E+000 2.520200E-001 0.000000E+000 0.000000E+000 0.000000E+000 0.000000E+000 /
 138.000000 138.000000  0.000000  0.000000 0.000000E+000 0.000000E+000    0.0    0.0    0.0    0.0 0.000  1.500000  0.510000  1.500000  0.510000 -0.006250  0.932000  1.000000  1.000000  1.000000   400101   391231   0 1     0.0    0.0    0.0    0.0 /
   1 1.000   0 0.000   0 0.000   0 0.000   0 0.000   0 0.000   0 0.000   0 0.000  0 /
   0.000000   0.000000  0.000000  0.000000     0.0    0.0    0.0     0.0    0.0    0.0 0.000 0.000  0  0  0 0.0000 0.0000 0 
generator data  [   5]         id   ------------long_id_------------    st ---no--     reg_name           prf  qrf  ar zone   pgen   pmax   pmin   qgen   qmax   qmin   mbase  cmp_r cmp_x gen_r gen_x           hbus                         tbus                date_in date_out pid N
      1 "Bus 1       " 138.00 "1 " "                                " :  1       1 "Bus 1       " 138.00  0.000000  1.000000   1    1 232.391691 10000.000000 -10000.000000 -16.549389  0.000000  0.000000 615.0000 0.000 0.000 0.000 1.000      -1 "            "   0.00      -1 "            "   0.00    400101   391231   0 0 /
 0.0000 0.0000 1.0000   1 1.000   0 0.000   0 0.000   0 0.000    0 0.000    0 0.000    0 0.000    0 0.000    0   0   0   0   0   0   0    0.0 0 0  1.000000
      2 "Bus 2       " 138.00 "1 " "                                " :  1       2 "Bus 2       " 138.00  0.000000  1.000000   1    1  40.000001 10000.000000 -10000.000000 43.555957 50.000000 -40.000001  60.0000 0.000 0.000 0.000 1.000      -1 "            "   0.00      -1 "            "   0.00    400101   391231   0 0 /
 0.0000 0.0000 1.0000   1 1.000   0 0.000   0 0.000   0 0.000    0 0.000    0 0.000    0 0.000    0 0.000    0   0   0   0   0   0   0    0.0 0 0  1.000000
      3 "Bus 3       " 138.00 "1 " "                                " :  1       3 "Bus 3       " 138.00  0.000000  1.000000   1    1   0.000000 10000.000000 -10000.000000 25.074852 40.000001  0.000000  60.0000 0.000 0.000 0.000 1.000      -1 "            "   0.00      -1 "            "   0.00    400101   391231   0 0 /
 0.0000 0.0000 1.0000   1 1.000   0 0.000   0 0.000   0 0.000    0 0.000    0 0.000    0 0.000    0 0.000    0   0   0   0   0   0   0    0.0 0 0  1.000000
      6 "Bus 6       " 138.00 "1 " "                                " :  1       6 "Bus 6       " 138.00  0.000000  1.000000   1    1   0.000000 10000.000000 -10000.000000 12.729700 23.999999 -6.000000  25.0000 0.000 0.000 0.000 1.000      -1 "            "   0.00      -1 "            "   0.00    400101   391231   0 0 /
 0.0000 0.0000 1.0000   1 1.000   0 0.000   0 0.000   0 0.000    0 0.000    0 0.000    0 0.000    0 0.000    0   0   0   0   0   0   0    0.0 0 0  1.000000
      8 "Bus 8       " 138.00 "1 " "                                " :  1       8 "Bus 8       " 138.00  0.000000  1.000000   1    1   0.000000 10000.000000 -10000.000000 17.623067 23.999999 -6.000000  25.0000 0.000 0.000 0.000 1.000      -1 "            "   0.00      -1 "            "   0.00    400101   391231   0 0 /
 0.0000 0.0000 1.0000   1 1.000   0 0.000   0 0.000   0 0.000    0 0.000    0 0.000    0 0.000    0 0.000    0   0   0   0   0   0   0    0.0 0 0  1.000000
load data  [  11]             id   ------------long_id_------------     st      mw      mvar    mw_i    mvar_i  mw_z      mvar_z  ar zone  date_in date_out pid N own M nonc  thr_bus flg
      2 "Bus 2       " 138.00 "1 " "                                "  :  1 21.699999 12.700000 0.000000 0.000000 0.000000 0.000000   1    1   400101   391231   0 0   1 0    0       0 "            "   0.00   0
      3 "Bus 3       " 138.00 "1 " "                                "  :  1 94.199997 19.000000 0.000000 0.000000 0.000000 0.000000   1    1   400101   391231   0 0   1 0    0       0 "            "   0.00   0
      4 "Bus 4       " 138.00 "1 " "                                "  :  1 47.799999 -3.900000 0.000000 0.000000 0.000000 0.000000   1    1   400101   391231   0 0   1 0    0       0 "            "   0.00   0
      5 "Bus 5       " 138.00 "1 " "                                "  :  1 7.600000 1.600000 0.000000 0.000000 0.000000 0.000000   1    1   400101   391231   0 0   1 0    0       0 "            "   0.00   0
      6 "Bus 6       " 138.00 "1 " "                                "  :  1 11.200000 7.500000 0.000000 0.000000 0.000000 0.000000   1    1   400101   391231   0 0   1 0    0       0 "            "   0.00   0
      9 "Bus 9       " 138.00 "1 " "                                "  :  1 29.499999 16.599999 0.000000 0.000000 0.000000 0.000000   1    1   400101   391231   0 0   1 0    0       0 "            "   0.00   0
     10 "Bus 10      " 138.00 "1 " "                                "  :  1 9.000000 5.800000 0.000000 0.000000 0.000000 0.000000   1    1   400101   391231   0 0   1 0    0       0 "            "   0.00   0
     11 "Bus 11      " 138.00 "1 " "                                "  :  1 3.500000 1.800000 0.000000 0.000000 0.000000 0.000000   1    1   400101   391231   0 0   1 0    0       0 "            "   0.00   0
     12 "Bus 12      " 138.00 "1 " "                                "  :  1 6.100000 1.600000 0.000000 0.000000 0.000000 0.000000   1    1   400101   391231   0 0   1 0    0       0 "            "   0.00   0
     13 "Bus 13      " 138.00 "1 " "                                "  :  1 13.500001 5.800000 0.000000 0.000000 0.000000 0.000000   1    1   400101   391231   0 0   1 0    0       0 "            "   0.00   0
     14 "Bus 14      " 138.00 "1 " "                                "  :  1 14.900000 5.000000 0.000000 0.000000 0.000000 0.000000   1    1   400101   391231   0 0   1 0    0       0 "            "   0.00   0
shunt data  [   1]             id                                 ck  se  ------------long_id_------------     st ar  zone    pu_mw  pu_mvar  date_in date_out pid N own part1 own part2 own part3 own part4 --num-- ----name----  --kv-- M --num--  ----name----  --kv--  ID  st
      9 "Bus 9       " 138.00 "b "       0 "            "   0.00 "  "  0 "                                "  :  1   1    1 0.000000 0.190000   400101   391231   0 0   1 1.000   0 0.000   0 0.000   0 0.000      -1 "            "   0.00 "  "  0 0
svd data  [   0]               id   ------------long_id_------------    st ty --no---     reg_name           ar zone      g      b  min_c  max_c  vband   bmin   bmax  date_in date_out pid N own part1 own part2 own part3 own part4 M st
area data  [  1]                            swing  desired    tol      pnet     qnet
    1 "IEEE14                          "       2    0.000  999.990   -0.001   -0.003 0
zone data  [   1]                            pnet     qnet
    1 "IEEE 14                         "   -0.001   -0.003 0
interface data  [   0]                      pnet     qnet   -rate1- -rate2- -rate3- -rate4- -rate5- -rate6- -rate7- -rate8-
interface branch data  [    0]                              ck      -i_no-  part_fac  
dc bus data  [ 0]             ty ar  zone   vsched     dc_volt  date_in date_out pid own
dc converter data  [ 0]                               id   long_id_    st ty md nb fg  --no---           reg   ar zone  date_in date_out
z table data  [ 0]  -tap2 fact2 -tap3 fact3 -tap4 fact4 -tap5 fact5 -tap6 fact6 -tap7 fact7 -tap8 fact8 -tap9 fact9 tap10 fac10 tap11 fac11
gcd data  [   0]
transaction data  [    0]              st    sch_mw   sch_mvar  flag stn pid         transaction name
owner data  [    1]    owner name           s name       net_mw   net_mvar     sch_mw   sch_mvar  ar
       1 "1                               " "    " :     0.000      0.000      0.000      0.000   0 0 


qtable data     [   0]   id     p[0]   qmx[0]  qmn[0]  ....
end
